LAMMPS (2 Aug 2023 - Update 3)
# Initial configuration for nanoparticle simulation

units           lj
atom_style      atomic
dimension       3

# Define the simulation box with periodic boundaries
boundary        p p p

# Create atoms
region          box block 0 20 0 20 0 20  # Increase the size of the box
create_box      1 box
Created orthogonal box = (0 0 0) to (20 20 20)
create_atoms    1 random 1000 12345 box
Created 1000 atoms

# Set mass for atom type 1
mass            1 1.0

# Define interatomic potential
pair_style      lj/cut 2.5
pair_coeff      1 1 0.0001 1.0 2.5  # Reduce epsilon to 0.1

# Set initial velocity with a lower temperature
velocity        all create 0.05 12345 dist gaussian  # Decrease the initial temperature

# Define settings for the run
fix             1 all nve
neighbor        0.3 bin
neigh_modify    every 1 delay 0 check yes

# Define the timestep
timestep        0.00001  # Decrease the timestep

# Output settings
thermo          100
dump            1 all custom 100 lammps_output.dump id type x y z vx vy vz

# Run the simulation
run             10000
Generated 0 of 0 mixed pair_coeff terms from geometric mixing rule
Step          Temp          E_pair         E_mol          TotEng         Press
0   0.05           2551.0289      0              2551.1038      1275.5362
Averages over the last 51 of 101 rows, steps 5000 to 10000:
Temp E_pair E_mol TotEng Press
1555.26 0.45612 0 2331.01 194.441
Loop time of 0.787178 on 1 procs for 10000 steps with 1000 atoms
